---- qbsp / ericw-tools v0.18.1 ----
Input file: testlevel.map
Output file: testlevel.bsp

---- LoadMapFile ----
*** WARNING 06: No info_player_deathmatch entities in level
           60 faces
           10 brushes
           10 entities
            4 unique texnames
           38 texinfo

*** WARNING 01: No valid WAD filenames in worldmodel
Processing hull 0...
---- Brush_LoadEntity ----
           10 brushes
           19 planes
---- CSGFaces ----
           60 brushfaces
           57 csgfaces
           46 mergedfaces
---- SolidBSP ----
           60 split nodes
           17 solid leafs
           43 empty leafs
            1 water leafs
            0 detail leafs
            0 detail illusionary leafs
            0 detail fence leafs
            0 illusionary visblocker leafs
           92 leaffaces
           91 nodefaces
---- Portalize ----
           44 vis leafs
           44 vis clusters
          114 vis portals
---- FillOutside ----
*** WARNING 10: Reached occupant at (136 -168 88), no filling performed.
Leak file written to testlevel.pts
---- MakeFaceEdges ----
---- GrowRegions ----
Processing hull 1...
*** WARNING 19: No entities in empty space -- no filling performed (hull 1)
Processing hull 2...
*** WARNING 19: No entities in empty space -- no filling performed (hull 2)
*** WARNING 16: Texture afloor1_4 not found
*** WARNING 16: Texture *04mwat2 not found
*** WARNING 16: Texture cop1_8 not found
*** WARNING 16: Texture afloor1_3 not found
---- WriteBSPFile ----
Wrote testlevel.bsp
           50 planes             1000
          117 vertexes           1404
           60 nodes              1440
           25 texinfo            1000
           91 faces              1820
          122 clipnodes           976
           45 leafs              1260
           92 marksurfaces        184
          364 surfedges          1456
          258 edges              1032
            4 textures             20
              lightdata             0
              visdata               0
              entdata             595

0.144 seconds elapsed
Peak memory usage: 556620 (0.5M)
